Program Version,EnergyPlus, Version 22.2.0-8087e2fb49, YMD=2022.12.18 16:31
