Program Version,EnergyPlus, Version 22.2.0-2f79ac8c85, YMD=2022.10.19 20:15
