Program Version,EnergyPlus, Version 22.2.0-7ff1ca9a23, YMD=2022.10.10 21:05
