Program Version,EnergyPlus, Version 22.2.0-5720e6592d, YMD=2022.10.12 18:40
