Program Version,EnergyPlus, Version 22.2.0-5bf40e124b (No OpenGL) (No OpenGL) (No OpenGL), YMD=2022.10.11 14:52
